MOL_0_pose_0
     RDKit          3D

 41 43  0  0  0  0  0  0  0  0999 V2000
    0.1440   63.9130   10.7650 S   0  0  0  0  0  0  0  0  0  0  0  0
   -2.7590   65.5840    8.5800 C   0  0  0  0  0  0  0  0  0  0  0  0
   -2.3100   64.2230   10.6020 N   0  0  0  0  0  0  0  0  0  0  0  0
   -1.8560   64.8720    9.5530 C   0  0  0  0  0  0  0  0  0  0  0  0
   -1.7310   62.9270   12.5090 N   0  0  0  0  0  0  0  0  0  0  0  0
   -1.4320   63.6490   11.3690 C   0  0  0  0  0  0  0  0  0  0  0  0
    1.7050   66.6400    6.3780 N   0  0  0  0  0  0  0  0  0  0  0  0
   -0.5120   64.8460    9.4230 C   0  0  0  0  0  0  0  0  0  0  0  0
    2.7630   64.5970    5.9610 N   0  0  0  0  0  0  0  0  0  0  0  0
    0.2660   65.4860    8.3480 C   0  0  0  0  0  0  0  0  0  0  0  0
    5.1870   60.1840    8.3440 N   0  0  0  0  0  0  0  0  0  0  0  0
    0.0910   66.8450    8.0540 C   0  0  0  0  0  0  0  0  0  0  0  0
    1.1520   64.7810    7.6410 N   0  0  0  0  0  0  0  0  0  0  0  0
    0.8450   67.4000    7.0380 C   0  0  0  0  0  0  0  0  0  0  0  0
    1.8520   65.3570    6.6770 C   0  0  0  0  0  0  0  0  0  0  0  0
    3.3730   63.4860    6.5600 C   0  0  0  0  0  0  0  0  0  0  0  0
    4.6470   63.0990    6.1680 C   0  0  0  0  0  0  0  0  0  0  0  0
    5.2480   62.0050    6.7600 C   0  0  0  0  0  0  0  0  0  0  0  0
    4.5790   61.2930    7.7450 C   0  0  0  0  0  0  0  0  0  0  0  0
    4.3630   59.1210    8.9230 C   0  0  0  0  0  0  0  0  0  0  0  0
    6.6490   60.0890    8.3920 C   0  0  0  0  0  0  0  0  0  0  0  0
    3.3030   61.6810    8.1370 C   0  0  0  0  0  0  0  0  0  0  0  0
    2.7050   62.7770    7.5500 C   0  0  0  0  0  0  0  0  0  0  0  0
   -2.9040   66.6140    8.9060 H   0  0  0  0  0  0  0  0  0  0  0  0
   -2.3020   65.5780    7.5900 H   0  0  0  0  0  0  0  0  0  0  0  0
   -3.7230   65.0760    8.5390 H   0  0  0  0  0  0  0  0  0  0  0  0
   -1.0170   62.5270   13.0310 H   0  0  0  0  0  0  0  0  0  0  0  0
   -2.6530   62.8210   12.7880 H   0  0  0  0  0  0  0  0  0  0  0  0
    2.9790   64.8330    5.0460 H   0  0  0  0  0  0  0  0  0  0  0  0
   -0.6170   67.4440    8.6070 H   0  0  0  0  0  0  0  0  0  0  0  0
    0.7350   68.4440    6.7860 H   0  0  0  0  0  0  0  0  0  0  0  0
    5.1680   63.6530    5.4010 H   0  0  0  0  0  0  0  0  0  0  0  0
    6.2390   61.7040    6.4540 H   0  0  0  0  0  0  0  0  0  0  0  0
    5.0090   58.3470    9.3400 H   0  0  0  0  0  0  0  0  0  0  0  0
    3.7370   59.5350    9.7120 H   0  0  0  0  0  0  0  0  0  0  0  0
    3.7320   58.6870    8.1480 H   0  0  0  0  0  0  0  0  0  0  0  0
    7.0130   60.5540    9.3080 H   0  0  0  0  0  0  0  0  0  0  0  0
    6.9440   59.0390    8.3750 H   0  0  0  0  0  0  0  0  0  0  0  0
    7.0750   60.6000    7.5290 H   0  0  0  0  0  0  0  0  0  0  0  0
    2.7820   61.1270    8.9040 H   0  0  0  0  0  0  0  0  0  0  0  0
    1.7150   63.0810    7.8570 H   0  0  0  0  0  0  0  0  0  0  0  0
  1  6  1  0
  2  4  1  0
  2 24  1  0
  2 25  1  0
  2 26  1  0
  3  6  2  0
  4  3  1  0
  4  8  2  0
  5 27  1  0
  5 28  1  0
  6  5  1  0
  7 15  2  0
  8  1  1  0
  9 16  1  0
  9 29  1  0
 10  8  1  0
 10 13  2  0
 11 21  1  0
 12 10  1  0
 12 30  1  0
 14  7  1  0
 14 12  2  0
 14 31  1  0
 15  9  1  0
 15 13  1  0
 16 17  2  0
 16 23  1  0
 17 18  1  0
 17 32  1  0
 18 19  2  0
 18 33  1  0
 19 11  1  0
 20 11  1  0
 20 34  1  0
 20 35  1  0
 20 36  1  0
 21 37  1  0
 21 38  1  0
 21 39  1  0
 22 19  1  0
 22 40  1  0
 23 22  2  0
 23 41  1  0
M  END
>  <energy>  (1) 
-6.984 -7.865 0.752 -8.617 0.000 1.633

$$$$
MOL_0_pose_1
     RDKit          3D

 41 43  0  0  0  0  0  0  0  0999 V2000
   -1.4410   63.6620    9.5880 S   0  0  0  0  0  0  0  0  0  0  0  0
   -1.9970   67.6220    9.6900 C   0  0  0  0  0  0  0  0  0  0  0  0
   -2.7860   65.4680   10.6280 N   0  0  0  0  0  0  0  0  0  0  0  0
   -1.9770   66.1220    9.8250 C   0  0  0  0  0  0  0  0  0  0  0  0
   -3.4390   63.3320   11.4400 N   0  0  0  0  0  0  0  0  0  0  0  0
   -2.6720   64.1730   10.6570 C   0  0  0  0  0  0  0  0  0  0  0  0
    1.7540   66.6160    6.4000 N   0  0  0  0  0  0  0  0  0  0  0  0
   -1.1260   65.3350    9.1310 C   0  0  0  0  0  0  0  0  0  0  0  0
    2.9470   64.6350    6.7460 N   0  0  0  0  0  0  0  0  0  0  0  0
   -0.1130   65.7930    8.1650 C   0  0  0  0  0  0  0  0  0  0  0  0
    3.4590   59.7190    9.3150 N   0  0  0  0  0  0  0  0  0  0  0  0
   -0.2470   67.0350    7.5280 C   0  0  0  0  0  0  0  0  0  0  0  0
    0.9470   65.0350    7.8840 N   0  0  0  0  0  0  0  0  0  0  0  0
    0.7280   67.4210    6.6300 C   0  0  0  0  0  0  0  0  0  0  0  0
    1.8580   65.4470    7.0170 C   0  0  0  0  0  0  0  0  0  0  0  0
    3.0760   63.3980    7.3930 C   0  0  0  0  0  0  0  0  0  0  0  0
    4.1610   62.5790    7.1120 C   0  0  0  0  0  0  0  0  0  0  0  0
    4.2880   61.3600    7.7500 C   0  0  0  0  0  0  0  0  0  0  0  0
    3.3310   60.9540    8.6700 C   0  0  0  0  0  0  0  0  0  0  0  0
    2.5510   59.3670   10.4090 C   0  0  0  0  0  0  0  0  0  0  0  0
    4.5020   58.7790    8.8950 C   0  0  0  0  0  0  0  0  0  0  0  0
    2.2450   61.7750    8.9500 C   0  0  0  0  0  0  0  0  0  0  0  0
    2.1210   62.9950    8.3170 C   0  0  0  0  0  0  0  0  0  0  0  0
   -1.3110   68.0610   10.4150 H   0  0  0  0  0  0  0  0  0  0  0  0
   -1.6870   67.9010    8.6830 H   0  0  0  0  0  0  0  0  0  0  0  0
   -3.0060   67.9910    9.8750 H   0  0  0  0  0  0  0  0  0  0  0  0
   -3.2940   62.3720   11.4060 H   0  0  0  0  0  0  0  0  0  0  0  0
   -4.1210   63.6980   12.0230 H   0  0  0  0  0  0  0  0  0  0  0  0
    3.6210   64.9220    6.1110 H   0  0  0  0  0  0  0  0  0  0  0  0
   -1.0940   67.6730    7.7320 H   0  0  0  0  0  0  0  0  0  0  0  0
    0.6560   68.3710    6.1220 H   0  0  0  0  0  0  0  0  0  0  0  0
    4.9050   62.8940    6.3970 H   0  0  0  0  0  0  0  0  0  0  0  0
    5.1320   60.7220    7.5310 H   0  0  0  0  0  0  0  0  0  0  0  0
    2.8030   58.3740   10.7840 H   0  0  0  0  0  0  0  0  0  0  0  0
    2.6510   60.0950   11.2130 H   0  0  0  0  0  0  0  0  0  0  0  0
    1.5240   59.3670   10.0440 H   0  0  0  0  0  0  0  0  0  0  0  0
    5.4110   58.9660    9.4670 H   0  0  0  0  0  0  0  0  0  0  0  0
    4.1630   57.7580    9.0740 H   0  0  0  0  0  0  0  0  0  0  0  0
    4.7060   58.9130    7.8330 H   0  0  0  0  0  0  0  0  0  0  0  0
    1.5000   61.4590    9.6650 H   0  0  0  0  0  0  0  0  0  0  0  0
    1.2790   63.6340    8.5370 H   0  0  0  0  0  0  0  0  0  0  0  0
  1  6  1  0
  2  4  1  0
  2 24  1  0
  2 25  1  0
  2 26  1  0
  3  6  2  0
  4  3  1  0
  4  8  2  0
  5 27  1  0
  5 28  1  0
  6  5  1  0
  7 15  2  0
  8  1  1  0
  9 16  1  0
  9 29  1  0
 10  8  1  0
 10 13  2  0
 11 21  1  0
 12 10  1  0
 12 30  1  0
 14  7  1  0
 14 12  2  0
 14 31  1  0
 15  9  1  0
 15 13  1  0
 16 17  2  0
 16 23  1  0
 17 18  1  0
 17 32  1  0
 18 19  2  0
 18 33  1  0
 19 11  1  0
 20 11  1  0
 20 34  1  0
 20 35  1  0
 20 36  1  0
 21 37  1  0
 21 38  1  0
 21 39  1  0
 22 19  1  0
 22 40  1  0
 23 22  2  0
 23 41  1  0
M  END
>  <energy>  (2) 
-6.838 -7.684 1.436 -9.121 0.000 1.599

$$$$
MOL_0_pose_2
     RDKit          3D

 41 43  0  0  0  0  0  0  0  0999 V2000
   -3.2250   66.3170    8.3170 S   0  0  0  0  0  0  0  0  0  0  0  0
   -0.3000   65.1160   10.7670 C   0  0  0  0  0  0  0  0  0  0  0  0
   -2.7540   65.4020   10.5740 N   0  0  0  0  0  0  0  0  0  0  0  0
   -1.5590   65.5070   10.0380 C   0  0  0  0  0  0  0  0  0  0  0  0
   -5.0860   65.7290   10.2460 N   0  0  0  0  0  0  0  0  0  0  0  0
   -3.7640   65.7710    9.8440 C   0  0  0  0  0  0  0  0  0  0  0  0
    1.8200   66.6020    6.4040 N   0  0  0  0  0  0  0  0  0  0  0  0
   -1.5550   65.9950    8.7780 C   0  0  0  0  0  0  0  0  0  0  0  0
    2.4300   64.3680    6.7200 N   0  0  0  0  0  0  0  0  0  0  0  0
   -0.3650   66.2170    7.9380 C   0  0  0  0  0  0  0  0  0  0  0  0
    2.4440   59.9820   10.1540 N   0  0  0  0  0  0  0  0  0  0  0  0
   -0.1150   67.4760    7.3760 C   0  0  0  0  0  0  0  0  0  0  0  0
    0.4910   65.2220    7.7010 N   0  0  0  0  0  0  0  0  0  0  0  0
    1.0130   67.6350    6.5960 C   0  0  0  0  0  0  0  0  0  0  0  0
    1.5600   65.4210    6.9470 C   0  0  0  0  0  0  0  0  0  0  0  0
    2.4340   63.2640    7.5840 C   0  0  0  0  0  0  0  0  0  0  0  0
    3.6380   62.6940    7.9760 C   0  0  0  0  0  0  0  0  0  0  0  0
    3.6400   61.6070    8.8280 C   0  0  0  0  0  0  0  0  0  0  0  0
    2.4420   61.0840    9.2920 C   0  0  0  0  0  0  0  0  0  0  0  0
    3.1160   58.7430    9.7570 C   0  0  0  0  0  0  0  0  0  0  0  0
    1.7730   60.0690   11.4540 C   0  0  0  0  0  0  0  0  0  0  0  0
    1.2370   61.6550    8.8990 C   0  0  0  0  0  0  0  0  0  0  0  0
    1.2340   62.7450    8.0520 C   0  0  0  0  0  0  0  0  0  0  0  0
   -0.0780   64.0670   10.5720 H   0  0  0  0  0  0  0  0  0  0  0  0
    0.5280   65.7330   10.4190 H   0  0  0  0  0  0  0  0  0  0  0  0
   -0.4390   65.2650   11.8380 H   0  0  0  0  0  0  0  0  0  0  0  0
   -5.7860   66.0230    9.6420 H   0  0  0  0  0  0  0  0  0  0  0  0
   -5.3140   65.4060   11.1310 H   0  0  0  0  0  0  0  0  0  0  0  0
    3.0370   64.3930    5.9640 H   0  0  0  0  0  0  0  0  0  0  0  0
   -0.7890   68.3020    7.5480 H   0  0  0  0  0  0  0  0  0  0  0  0
    1.2360   68.5920    6.1490 H   0  0  0  0  0  0  0  0  0  0  0  0
    4.5700   63.1000    7.6150 H   0  0  0  0  0  0  0  0  0  0  0  0
    4.5770   61.1630    9.1320 H   0  0  0  0  0  0  0  0  0  0  0  0
    3.0120   58.0030   10.5510 H   0  0  0  0  0  0  0  0  0  0  0  0
    2.6630   58.3610    8.8430 H   0  0  0  0  0  0  0  0  0  0  0  0
    4.1730   58.9420    9.5830 H   0  0  0  0  0  0  0  0  0  0  0  0
    0.7360   59.7530   11.3490 H   0  0  0  0  0  0  0  0  0  0  0  0
    2.2800   59.4180   12.1680 H   0  0  0  0  0  0  0  0  0  0  0  0
    1.8070   61.0970   11.8120 H   0  0  0  0  0  0  0  0  0  0  0  0
    0.3040   61.2490    9.2600 H   0  0  0  0  0  0  0  0  0  0  0  0
    0.2980   63.1910    7.7500 H   0  0  0  0  0  0  0  0  0  0  0  0
  1  6  1  0
  2  4  1  0
  2 24  1  0
  2 25  1  0
  2 26  1  0
  3  6  2  0
  4  3  1  0
  4  8  2  0
  5 27  1  0
  5 28  1  0
  6  5  1  0
  7 15  2  0
  8  1  1  0
  9 16  1  0
  9 29  1  0
 10  8  1  0
 10 13  2  0
 11 21  1  0
 12 10  1  0
 12 30  1  0
 14  7  1  0
 14 12  2  0
 14 31  1  0
 15  9  1  0
 15 13  1  0
 16 17  2  0
 16 23  1  0
 17 18  1  0
 17 32  1  0
 18 19  2  0
 18 33  1  0
 19 11  1  0
 20 11  1  0
 20 34  1  0
 20 35  1  0
 20 36  1  0
 21 37  1  0
 21 38  1  0
 21 39  1  0
 22 19  1  0
 22 40  1  0
 23 22  2  0
 23 41  1  0
M  END
>  <energy>  (3) 
-6.861 -7.712 0.385 -8.098 0.000 1.604

$$$$
MOL_0_pose_3
     RDKit          3D

 41 43  0  0  0  0  0  0  0  0999 V2000
   -1.2380   63.4010    9.5850 S   0  0  0  0  0  0  0  0  0  0  0  0
   -1.6580   67.3430   10.1170 C   0  0  0  0  0  0  0  0  0  0  0  0
   -2.4240   65.1250   10.9160 N   0  0  0  0  0  0  0  0  0  0  0  0
   -1.6730   65.8360   10.1060 C   0  0  0  0  0  0  0  0  0  0  0  0
   -3.0660   62.9350   11.5780 N   0  0  0  0  0  0  0  0  0  0  0  0
   -2.3490   63.8320   10.8100 C   0  0  0  0  0  0  0  0  0  0  0  0
    1.7410   66.5820    6.4060 N   0  0  0  0  0  0  0  0  0  0  0  0
   -0.9150   65.1020    9.2620 C   0  0  0  0  0  0  0  0  0  0  0  0
    3.0990   64.7050    6.7140 N   0  0  0  0  0  0  0  0  0  0  0  0
    0.0170   65.6310    8.2520 C   0  0  0  0  0  0  0  0  0  0  0  0
    3.8980   59.6780    8.9770 N   0  0  0  0  0  0  0  0  0  0  0  0
   -0.2400   66.8520    7.6140 C   0  0  0  0  0  0  0  0  0  0  0  0
    1.1230   64.9560    7.9310 N   0  0  0  0  0  0  0  0  0  0  0  0
    0.6650   67.3060    6.6750 C   0  0  0  0  0  0  0  0  0  0  0  0
    1.9610   65.4310    7.0240 C   0  0  0  0  0  0  0  0  0  0  0  0
    3.3010   63.4400    7.2840 C   0  0  0  0  0  0  0  0  0  0  0  0
    2.4190   62.9650    8.2450 C   0  0  0  0  0  0  0  0  0  0  0  0
    2.6170   61.7180    8.8060 C   0  0  0  0  0  0  0  0  0  0  0  0
    3.6970   60.9410    8.4090 C   0  0  0  0  0  0  0  0  0  0  0  0
    2.9340   59.1480    9.9430 C   0  0  0  0  0  0  0  0  0  0  0  0
    5.0760   58.8890    8.6070 C   0  0  0  0  0  0  0  0  0  0  0  0
    4.5780   61.4180    7.4460 C   0  0  0  0  0  0  0  0  0  0  0  0
    4.3780   62.6610    6.8820 C   0  0  0  0  0  0  0  0  0  0  0  0
   -0.8950   67.6930   10.8130 H   0  0  0  0  0  0  0  0  0  0  0  0
   -1.4340   67.7120    9.1160 H   0  0  0  0  0  0  0  0  0  0  0  0
   -2.6330   67.7140   10.4320 H   0  0  0  0  0  0  0  0  0  0  0  0
   -2.9550   61.9800   11.4390 H   0  0  0  0  0  0  0  0  0  0  0  0
   -3.6800   63.2570   12.2560 H   0  0  0  0  0  0  0  0  0  0  0  0
    3.7570   65.0710    6.1020 H   0  0  0  0  0  0  0  0  0  0  0  0
   -1.1250   67.4230    7.8500 H   0  0  0  0  0  0  0  0  0  0  0  0
    0.4970   68.2430    6.1650 H   0  0  0  0  0  0  0  0  0  0  0  0
    1.5800   63.5690    8.5540 H   0  0  0  0  0  0  0  0  0  0  0  0
    1.9320   61.3480    9.5550 H   0  0  0  0  0  0  0  0  0  0  0  0
    3.2570   58.1600   10.2750 H   0  0  0  0  0  0  0  0  0  0  0  0
    2.8730   59.8160   10.8010 H   0  0  0  0  0  0  0  0  0  0  0  0
    1.9540   59.0700    9.4730 H   0  0  0  0  0  0  0  0  0  0  0  0
    5.8980   59.1230    9.2830 H   0  0  0  0  0  0  0  0  0  0  0  0
    4.8380   57.8270    8.6790 H   0  0  0  0  0  0  0  0  0  0  0  0
    5.3660   59.1270    7.5840 H   0  0  0  0  0  0  0  0  0  0  0  0
    5.4190   60.8140    7.1370 H   0  0  0  0  0  0  0  0  0  0  0  0
    5.0610   63.0300    6.1310 H   0  0  0  0  0  0  0  0  0  0  0  0
  1  6  1  0
  2  4  1  0
  2 24  1  0
  2 25  1  0
  2 26  1  0
  3  6  2  0
  4  3  1  0
  4  8  2  0
  5 27  1  0
  5 28  1  0
  6  5  1  0
  7 15  2  0
  8  1  1  0
  9 16  1  0
  9 29  1  0
 10  8  1  0
 10 13  2  0
 11 21  1  0
 12 10  1  0
 12 30  1  0
 14  7  1  0
 14 12  2  0
 14 31  1  0
 15  9  1  0
 15 13  1  0
 16 17  2  0
 16 23  1  0
 17 18  1  0
 17 32  1  0
 18 19  2  0
 18 33  1  0
 19 11  1  0
 20 11  1  0
 20 34  1  0
 20 35  1  0
 20 36  1  0
 21 37  1  0
 21 38  1  0
 21 39  1  0
 22 19  1  0
 22 40  1  0
 23 22  2  0
 23 41  1  0
M  END
>  <energy>  (4) 
-6.838 -7.684 1.315 -9.000 0.000 1.599

$$$$
MOL_0_pose_4
     RDKit          3D

 41 43  0  0  0  0  0  0  0  0999 V2000
   -1.3220   64.9970   10.6010 S   0  0  0  0  0  0  0  0  0  0  0  0
   -0.1310   62.1300    8.0790 C   0  0  0  0  0  0  0  0  0  0  0  0
   -1.4240   62.5600   10.1490 N   0  0  0  0  0  0  0  0  0  0  0  0
   -0.6950   63.0190    9.1570 C   0  0  0  0  0  0  0  0  0  0  0  0
   -2.6300   63.1230   12.1190 N   0  0  0  0  0  0  0  0  0  0  0  0
   -1.8540   63.4280   11.0170 C   0  0  0  0  0  0  0  0  0  0  0  0
    1.7100   66.5500    6.4050 N   0  0  0  0  0  0  0  0  0  0  0  0
   -0.4940   64.3550    9.1850 C   0  0  0  0  0  0  0  0  0  0  0  0
    3.2150   64.7720    6.2110 N   0  0  0  0  0  0  0  0  0  0  0  0
    0.2780   65.1360    8.2030 C   0  0  0  0  0  0  0  0  0  0  0  0
    5.2780   60.0210    8.2620 N   0  0  0  0  0  0  0  0  0  0  0  0
   -0.1300   66.4250    7.8380 C   0  0  0  0  0  0  0  0  0  0  0  0
    1.3800   64.6270    7.6490 N   0  0  0  0  0  0  0  0  0  0  0  0
    0.6270   67.1180    6.9140 C   0  0  0  0  0  0  0  0  0  0  0  0
    2.0750   65.3290    6.7680 C   0  0  0  0  0  0  0  0  0  0  0  0
    3.7340   63.5760    6.7280 C   0  0  0  0  0  0  0  0  0  0  0  0
    3.2080   63.0390    7.8940 C   0  0  0  0  0  0  0  0  0  0  0  0
    3.7190   61.8600    8.4020 C   0  0  0  0  0  0  0  0  0  0  0  0
    4.7590   61.2140    7.7470 C   0  0  0  0  0  0  0  0  0  0  0  0
    6.7270   59.8160    8.3180 C   0  0  0  0  0  0  0  0  0  0  0  0
    4.3700   58.9770    8.7450 C   0  0  0  0  0  0  0  0  0  0  0  0
    5.2850   61.7540    6.5800 C   0  0  0  0  0  0  0  0  0  0  0  0
    4.7700   62.9280    6.0690 C   0  0  0  0  0  0  0  0  0  0  0  0
   -0.8450   62.0560    7.2590 H   0  0  0  0  0  0  0  0  0  0  0  0
    0.8020   62.5530    7.7100 H   0  0  0  0  0  0  0  0  0  0  0  0
    0.0560   61.1370    8.4880 H   0  0  0  0  0  0  0  0  0  0  0  0
   -2.9120   63.8280   12.7230 H   0  0  0  0  0  0  0  0  0  0  0  0
   -2.8920   62.2050   12.2890 H   0  0  0  0  0  0  0  0  0  0  0  0
    3.6530   65.2080    5.4650 H   0  0  0  0  0  0  0  0  0  0  0  0
   -1.0180   66.8660    8.2670 H   0  0  0  0  0  0  0  0  0  0  0  0
    0.3400   68.1140    6.6110 H   0  0  0  0  0  0  0  0  0  0  0  0
    2.3990   63.5410    8.4040 H   0  0  0  0  0  0  0  0  0  0  0  0
    3.3100   61.4420    9.3100 H   0  0  0  0  0  0  0  0  0  0  0  0
    6.9390   58.8360    8.7460 H   0  0  0  0  0  0  0  0  0  0  0  0
    7.1400   59.8700    7.3120 H   0  0  0  0  0  0  0  0  0  0  0  0
    7.1790   60.5890    8.9390 H   0  0  0  0  0  0  0  0  0  0  0  0
    4.1230   58.3030    7.9250 H   0  0  0  0  0  0  0  0  0  0  0  0
    4.8560   58.4150    9.5430 H   0  0  0  0  0  0  0  0  0  0  0  0
    3.4580   59.4360    9.1260 H   0  0  0  0  0  0  0  0  0  0  0  0
    6.0940   61.2520    6.0700 H   0  0  0  0  0  0  0  0  0  0  0  0
    5.1770   63.3450    5.1590 H   0  0  0  0  0  0  0  0  0  0  0  0
  1  6  1  0
  2  4  1  0
  2 24  1  0
  2 25  1  0
  2 26  1  0
  3  6  2  0
  4  3  1  0
  4  8  2  0
  5 27  1  0
  5 28  1  0
  6  5  1  0
  7 15  2  0
  8  1  1  0
  9 16  1  0
  9 29  1  0
 10  8  1  0
 10 13  2  0
 11 21  1  0
 12 10  1  0
 12 30  1  0
 14  7  1  0
 14 12  2  0
 14 31  1  0
 15  9  1  0
 15 13  1  0
 16 17  2  0
 16 23  1  0
 17 18  1  0
 17 32  1  0
 18 19  2  0
 18 33  1  0
 19 11  1  0
 20 11  1  0
 20 34  1  0
 20 35  1  0
 20 36  1  0
 21 37  1  0
 21 38  1  0
 21 39  1  0
 22 19  1  0
 22 40  1  0
 23 22  2  0
 23 41  1  0
M  END
>  <energy>  (5) 
-6.913 -7.777 1.031 -8.808 0.000 1.616

$$$$
MOL_0_pose_5
     RDKit          3D

 41 43  0  0  0  0  0  0  0  0999 V2000
   -1.2200   64.9960   10.6610 S   0  0  0  0  0  0  0  0  0  0  0  0
   -0.1760   62.1470    8.0540 C   0  0  0  0  0  0  0  0  0  0  0  0
   -1.3930   62.5700   10.1710 N   0  0  0  0  0  0  0  0  0  0  0  0
   -0.6850   63.0300    9.1640 C   0  0  0  0  0  0  0  0  0  0  0  0
   -2.5240   63.1240   12.1870 N   0  0  0  0  0  0  0  0  0  0  0  0
   -1.7760   63.4310   11.0670 C   0  0  0  0  0  0  0  0  0  0  0  0
    1.7150   66.5540    6.4000 N   0  0  0  0  0  0  0  0  0  0  0  0
   -0.4520   64.3600    9.2090 C   0  0  0  0  0  0  0  0  0  0  0  0
    3.1740   64.7470    6.1320 N   0  0  0  0  0  0  0  0  0  0  0  0
    0.3070   65.1400    8.2170 C   0  0  0  0  0  0  0  0  0  0  0  0
    5.3720   60.0770    8.2250 N   0  0  0  0  0  0  0  0  0  0  0  0
   -0.0840   66.4440    7.8850 C   0  0  0  0  0  0  0  0  0  0  0  0
    1.3810   64.6180    7.6220 N   0  0  0  0  0  0  0  0  0  0  0  0
    0.6610   67.1360    6.9500 C   0  0  0  0  0  0  0  0  0  0  0  0
    2.0640   65.3190    6.7320 C   0  0  0  0  0  0  0  0  0  0  0  0
    3.7270   63.5720    6.6580 C   0  0  0  0  0  0  0  0  0  0  0  0
    4.7910   62.9560    6.0130 C   0  0  0  0  0  0  0  0  0  0  0  0
    5.3360   61.7990    6.5330 C   0  0  0  0  0  0  0  0  0  0  0  0
    4.8210   61.2500    7.6990 C   0  0  0  0  0  0  0  0  0  0  0  0
    6.8250   59.9440    8.3540 C   0  0  0  0  0  0  0  0  0  0  0  0
    4.4950   58.9810    8.6450 C   0  0  0  0  0  0  0  0  0  0  0  0
    3.7560   61.8670    8.3440 C   0  0  0  0  0  0  0  0  0  0  0  0
    3.2150   63.0270    7.8280 C   0  0  0  0  0  0  0  0  0  0  0  0
   -0.9160   62.1040    7.2560 H   0  0  0  0  0  0  0  0  0  0  0  0
    0.7550   62.5560    7.6630 H   0  0  0  0  0  0  0  0  0  0  0  0
    0.0000   61.1430    8.4400 H   0  0  0  0  0  0  0  0  0  0  0  0
   -2.7710   63.8250   12.8120 H   0  0  0  0  0  0  0  0  0  0  0  0
   -2.8020   62.2100   12.3500 H   0  0  0  0  0  0  0  0  0  0  0  0
    3.5690   65.1600    5.3480 H   0  0  0  0  0  0  0  0  0  0  0  0
   -0.9480   66.8970    8.3480 H   0  0  0  0  0  0  0  0  0  0  0  0
    0.3860   68.1430    6.6720 H   0  0  0  0  0  0  0  0  0  0  0  0
    5.1920   63.3820    5.1060 H   0  0  0  0  0  0  0  0  0  0  0  0
    6.1640   61.3190    6.0300 H   0  0  0  0  0  0  0  0  0  0  0  0
    7.0640   58.9690    8.7790 H   0  0  0  0  0  0  0  0  0  0  0  0
    7.2870   60.0340    7.3720 H   0  0  0  0  0  0  0  0  0  0  0  0
    7.2050   60.7280    9.0080 H   0  0  0  0  0  0  0  0  0  0  0  0
    4.3260   58.3080    7.8040 H   0  0  0  0  0  0  0  0  0  0  0  0
    4.9660   58.4320    9.4610 H   0  0  0  0  0  0  0  0  0  0  0  0
    3.5430   59.3880    8.9830 H   0  0  0  0  0  0  0  0  0  0  0  0
    3.3540   61.4410    9.2520 H   0  0  0  0  0  0  0  0  0  0  0  0
    2.3890   63.5080    8.3320 H   0  0  0  0  0  0  0  0  0  0  0  0
  1  6  1  0
  2  4  1  0
  2 24  1  0
  2 25  1  0
  2 26  1  0
  3  6  2  0
  4  3  1  0
  4  8  2  0
  5 27  1  0
  5 28  1  0
  6  5  1  0
  7 15  2  0
  8  1  1  0
  9 16  1  0
  9 29  1  0
 10  8  1  0
 10 13  2  0
 11 21  1  0
 12 10  1  0
 12 30  1  0
 14  7  1  0
 14 12  2  0
 14 31  1  0
 15  9  1  0
 15 13  1  0
 16 17  2  0
 16 23  1  0
 17 18  1  0
 17 32  1  0
 18 19  2  0
 18 33  1  0
 19 11  1  0
 20 11  1  0
 20 34  1  0
 20 35  1  0
 20 36  1  0
 21 37  1  0
 21 38  1  0
 21 39  1  0
 22 19  1  0
 22 40  1  0
 23 22  2  0
 23 41  1  0
M  END
>  <energy>  (6) 
-6.880 -7.736 1.006 -8.743 0.000 1.608

$$$$
MOL_0_pose_6
     RDKit          3D

 41 43  0  0  0  0  0  0  0  0999 V2000
   -2.5210   64.9040    9.2430 S   0  0  0  0  0  0  0  0  0  0  0  0
    1.0800   63.6100   10.4050 C   0  0  0  0  0  0  0  0  0  0  0  0
   -1.3440   63.4820   10.9000 N   0  0  0  0  0  0  0  0  0  0  0  0
   -0.3650   63.9550   10.1620 C   0  0  0  0  0  0  0  0  0  0  0  0
   -3.6940   63.4550   11.2570 N   0  0  0  0  0  0  0  0  0  0  0  0
   -2.5510   63.8530   10.5910 C   0  0  0  0  0  0  0  0  0  0  0  0
    1.7240   66.6510    6.3940 N   0  0  0  0  0  0  0  0  0  0  0  0
   -0.7660   64.7760    9.1670 C   0  0  0  0  0  0  0  0  0  0  0  0
    2.6680   64.5800    5.8600 N   0  0  0  0  0  0  0  0  0  0  0  0
    0.1090   65.4450    8.1890 C   0  0  0  0  0  0  0  0  0  0  0  0
    5.3680   60.3570    8.2910 N   0  0  0  0  0  0  0  0  0  0  0  0
    0.0380   66.8330    8.0020 C   0  0  0  0  0  0  0  0  0  0  0  0
    0.9840   64.7400    7.4690 N   0  0  0  0  0  0  0  0  0  0  0  0
    0.8810   67.4140    7.0740 C   0  0  0  0  0  0  0  0  0  0  0  0
    1.7710   65.3410    6.5920 C   0  0  0  0  0  0  0  0  0  0  0  0
    3.3480   63.5180    6.4720 C   0  0  0  0  0  0  0  0  0  0  0  0
    2.7380   62.8010    7.4920 C   0  0  0  0  0  0  0  0  0  0  0  0
    3.4080   61.7530    8.0940 C   0  0  0  0  0  0  0  0  0  0  0  0
    4.6890   61.4180    7.6800 C   0  0  0  0  0  0  0  0  0  0  0  0
    4.6160   59.2360    8.8570 C   0  0  0  0  0  0  0  0  0  0  0  0
    6.8310   60.3710    8.3640 C   0  0  0  0  0  0  0  0  0  0  0  0
    5.2990   62.1360    6.6590 C   0  0  0  0  0  0  0  0  0  0  0  0
    4.6280   63.1790    6.0530 C   0  0  0  0  0  0  0  0  0  0  0  0
    1.3430   62.7210    9.8320 H   0  0  0  0  0  0  0  0  0  0  0  0
    1.7100   64.4430   10.0920 H   0  0  0  0  0  0  0  0  0  0  0  0
    1.2350   63.4170   11.4670 H   0  0  0  0  0  0  0  0  0  0  0  0
   -4.5620   63.7760   10.9650 H   0  0  0  0  0  0  0  0  0  0  0  0
   -3.6290   62.8550   12.0160 H   0  0  0  0  0  0  0  0  0  0  0  0
    2.8270   64.7820    4.9250 H   0  0  0  0  0  0  0  0  0  0  0  0
   -0.6580   67.4320    8.5680 H   0  0  0  0  0  0  0  0  0  0  0  0
    0.8530   68.4800    6.9050 H   0  0  0  0  0  0  0  0  0  0  0  0
    1.7410   63.0610    7.8150 H   0  0  0  0  0  0  0  0  0  0  0  0
    2.9330   61.1960    8.8890 H   0  0  0  0  0  0  0  0  0  0  0  0
    5.3100   58.5130    9.2870 H   0  0  0  0  0  0  0  0  0  0  0  0
    3.9470   59.6020    9.6350 H   0  0  0  0  0  0  0  0  0  0  0  0
    4.0330   58.7560    8.0720 H   0  0  0  0  0  0  0  0  0  0  0  0
    7.1440   60.8630    9.2860 H   0  0  0  0  0  0  0  0  0  0  0  0
    7.2040   59.3470    8.3540 H   0  0  0  0  0  0  0  0  0  0  0  0
    7.2330   60.9130    7.5080 H   0  0  0  0  0  0  0  0  0  0  0  0
    6.2960   61.8760    6.3360 H   0  0  0  0  0  0  0  0  0  0  0  0
    5.1000   63.7350    5.2570 H   0  0  0  0  0  0  0  0  0  0  0  0
  1  6  1  0
  2  4  1  0
  2 24  1  0
  2 25  1  0
  2 26  1  0
  3  6  2  0
  4  3  1  0
  4  8  2  0
  5 27  1  0
  5 28  1  0
  6  5  1  0
  7 15  2  0
  8  1  1  0
  9 16  1  0
  9 29  1  0
 10  8  1  0
 10 13  2  0
 11 21  1  0
 12 10  1  0
 12 30  1  0
 14  7  1  0
 14 12  2  0
 14 31  1  0
 15  9  1  0
 15 13  1  0
 16 17  2  0
 16 23  1  0
 17 18  1  0
 17 32  1  0
 18 19  2  0
 18 33  1  0
 19 11  1  0
 20 11  1  0
 20 34  1  0
 20 35  1  0
 20 36  1  0
 21 37  1  0
 21 38  1  0
 21 39  1  0
 22 19  1  0
 22 40  1  0
 23 22  2  0
 23 41  1  0
M  END
>  <energy>  (7) 
-6.731 -7.552 0.495 -8.048 0.000 1.574

$$$$
MOL_0_pose_7
     RDKit          3D

 41 43  0  0  0  0  0  0  0  0999 V2000
   -2.5280   64.9090    9.2390 S   0  0  0  0  0  0  0  0  0  0  0  0
    1.0680   63.6040   10.4050 C   0  0  0  0  0  0  0  0  0  0  0  0
   -1.3580   63.4820   10.8960 N   0  0  0  0  0  0  0  0  0  0  0  0
   -0.3760   63.9530   10.1600 C   0  0  0  0  0  0  0  0  0  0  0  0
   -3.7080   63.4600   11.2490 N   0  0  0  0  0  0  0  0  0  0  0  0
   -2.5630   63.8560   10.5850 C   0  0  0  0  0  0  0  0  0  0  0  0
    1.7280   66.6470    6.4000 N   0  0  0  0  0  0  0  0  0  0  0  0
   -0.7730   64.7760    9.1650 C   0  0  0  0  0  0  0  0  0  0  0  0
    2.6610   64.5740    5.8580 N   0  0  0  0  0  0  0  0  0  0  0  0
    0.1060   65.4440    8.1900 C   0  0  0  0  0  0  0  0  0  0  0  0
    5.3630   60.3500    8.2830 N   0  0  0  0  0  0  0  0  0  0  0  0
    0.0420   66.8330    8.0070 C   0  0  0  0  0  0  0  0  0  0  0  0
    0.9770   64.7370    7.4680 N   0  0  0  0  0  0  0  0  0  0  0  0
    0.8880   67.4120    7.0810 C   0  0  0  0  0  0  0  0  0  0  0  0
    1.7680   65.3370    6.5920 C   0  0  0  0  0  0  0  0  0  0  0  0
    3.3410   63.5110    6.4690 C   0  0  0  0  0  0  0  0  0  0  0  0
    2.7320   62.7920    7.4880 C   0  0  0  0  0  0  0  0  0  0  0  0
    3.4020   61.7450    8.0890 C   0  0  0  0  0  0  0  0  0  0  0  0
    4.6840   61.4100    7.6740 C   0  0  0  0  0  0  0  0  0  0  0  0
    6.8260   60.3620    8.3560 C   0  0  0  0  0  0  0  0  0  0  0  0
    4.6110   59.2270    8.8480 C   0  0  0  0  0  0  0  0  0  0  0  0
    5.2930   62.1310    6.6540 C   0  0  0  0  0  0  0  0  0  0  0  0
    4.6220   63.1740    6.0500 C   0  0  0  0  0  0  0  0  0  0  0  0
    1.3290   62.7140    9.8320 H   0  0  0  0  0  0  0  0  0  0  0  0
    1.7010   64.4350   10.0940 H   0  0  0  0  0  0  0  0  0  0  0  0
    1.2200   63.4090   11.4670 H   0  0  0  0  0  0  0  0  0  0  0  0
   -4.5750   63.7840   10.9550 H   0  0  0  0  0  0  0  0  0  0  0  0
   -3.6470   62.8590   12.0060 H   0  0  0  0  0  0  0  0  0  0  0  0
    2.8160   64.7750    4.9230 H   0  0  0  0  0  0  0  0  0  0  0  0
   -0.6510   67.4340    8.5750 H   0  0  0  0  0  0  0  0  0  0  0  0
    0.8650   68.4790    6.9160 H   0  0  0  0  0  0  0  0  0  0  0  0
    1.7350   63.0520    7.8110 H   0  0  0  0  0  0  0  0  0  0  0  0
    2.9280   61.1860    8.8830 H   0  0  0  0  0  0  0  0  0  0  0  0
    7.1730   59.4600    8.8610 H   0  0  0  0  0  0  0  0  0  0  0  0
    7.2400   60.3960    7.3490 H   0  0  0  0  0  0  0  0  0  0  0  0
    7.1550   61.2390    8.9140 H   0  0  0  0  0  0  0  0  0  0  0  0
    4.4740   58.4610    8.0840 H   0  0  0  0  0  0  0  0  0  0  0  0
    5.1620   58.8060    9.6890 H   0  0  0  0  0  0  0  0  0  0  0  0
    3.6370   59.5770    9.1900 H   0  0  0  0  0  0  0  0  0  0  0  0
    6.2910   61.8720    6.3310 H   0  0  0  0  0  0  0  0  0  0  0  0
    5.0940   63.7320    5.2540 H   0  0  0  0  0  0  0  0  0  0  0  0
  1  6  1  0
  2  4  1  0
  2 24  1  0
  2 25  1  0
  2 26  1  0
  3  6  2  0
  4  3  1  0
  4  8  2  0
  5 27  1  0
  5 28  1  0
  6  5  1  0
  7 15  2  0
  8  1  1  0
  9 16  1  0
  9 29  1  0
 10  8  1  0
 10 13  2  0
 11 21  1  0
 12 10  1  0
 12 30  1  0
 14  7  1  0
 14 12  2  0
 14 31  1  0
 15  9  1  0
 15 13  1  0
 16 17  2  0
 16 23  1  0
 17 18  1  0
 17 32  1  0
 18 19  2  0
 18 33  1  0
 19 11  1  0
 20 11  1  0
 20 34  1  0
 20 35  1  0
 20 36  1  0
 21 37  1  0
 21 38  1  0
 21 39  1  0
 22 19  1  0
 22 40  1  0
 23 22  2  0
 23 41  1  0
M  END
>  <energy>  (8) 
-6.729 -7.550 0.484 -8.035 0.000 1.573

$$$$
MOL_0_pose_8
     RDKit          3D

 41 43  0  0  0  0  0  0  0  0999 V2000
   -2.5320   64.9080    9.2330 S   0  0  0  0  0  0  0  0  0  0  0  0
    1.0710   63.6560   10.4340 C   0  0  0  0  0  0  0  0  0  0  0  0
   -1.3550   63.5150   10.9140 N   0  0  0  0  0  0  0  0  0  0  0  0
   -0.3750   63.9870   10.1770 C   0  0  0  0  0  0  0  0  0  0  0  0
   -3.7070   63.4740   11.2550 N   0  0  0  0  0  0  0  0  0  0  0  0
   -2.5630   63.8730   10.5920 C   0  0  0  0  0  0  0  0  0  0  0  0
    1.7200   66.6550    6.3930 N   0  0  0  0  0  0  0  0  0  0  0  0
   -0.7750   64.7930    9.1700 C   0  0  0  0  0  0  0  0  0  0  0  0
    2.6650   64.5820    5.8690 N   0  0  0  0  0  0  0  0  0  0  0  0
    0.1020   65.4580    8.1910 C   0  0  0  0  0  0  0  0  0  0  0  0
    5.2920   60.3150    8.3010 N   0  0  0  0  0  0  0  0  0  0  0  0
    0.0310   66.8440    7.9970 C   0  0  0  0  0  0  0  0  0  0  0  0
    0.9780   64.7490    7.4750 N   0  0  0  0  0  0  0  0  0  0  0  0
    0.8760   67.4210    7.0680 C   0  0  0  0  0  0  0  0  0  0  0  0
    1.7660   65.3460    6.5960 C   0  0  0  0  0  0  0  0  0  0  0  0
    3.3260   63.5080    6.4810 C   0  0  0  0  0  0  0  0  0  0  0  0
    4.6020   63.1510    6.0660 C   0  0  0  0  0  0  0  0  0  0  0  0
    5.2530   62.0930    6.6690 C   0  0  0  0  0  0  0  0  0  0  0  0
    4.6330   61.3870    7.6910 C   0  0  0  0  0  0  0  0  0  0  0  0
    4.5190   59.2080    8.8710 C   0  0  0  0  0  0  0  0  0  0  0  0
    6.7550   60.3000    8.3720 C   0  0  0  0  0  0  0  0  0  0  0  0
    3.3560   61.7450    8.1060 C   0  0  0  0  0  0  0  0  0  0  0  0
    2.7070   62.8050    7.5070 C   0  0  0  0  0  0  0  0  0  0  0  0
    1.3440   62.7620    9.8730 H   0  0  0  0  0  0  0  0  0  0  0  0
    1.6970   64.4900   10.1160 H   0  0  0  0  0  0  0  0  0  0  0  0
    1.2200   63.4760   11.4990 H   0  0  0  0  0  0  0  0  0  0  0  0
   -4.5760   63.7840   10.9540 H   0  0  0  0  0  0  0  0  0  0  0  0
   -3.6440   62.8830   12.0210 H   0  0  0  0  0  0  0  0  0  0  0  0
    2.8370   64.7900    4.9380 H   0  0  0  0  0  0  0  0  0  0  0  0
   -0.6660   67.4460    8.5590 H   0  0  0  0  0  0  0  0  0  0  0  0
    0.8470   68.4860    6.8940 H   0  0  0  0  0  0  0  0  0  0  0  0
    5.0840   63.7000    5.2710 H   0  0  0  0  0  0  0  0  0  0  0  0
    6.2450   61.8150    6.3450 H   0  0  0  0  0  0  0  0  0  0  0  0
    5.2000   58.4730    9.3000 H   0  0  0  0  0  0  0  0  0  0  0  0
    3.8590   59.5890    9.6490 H   0  0  0  0  0  0  0  0  0  0  0  0
    3.9250   58.7390    8.0870 H   0  0  0  0  0  0  0  0  0  0  0  0
    7.0800   60.7860    9.2920 H   0  0  0  0  0  0  0  0  0  0  0  0
    7.1080   59.2680    8.3630 H   0  0  0  0  0  0  0  0  0  0  0  0
    7.1660   60.8320    7.5150 H   0  0  0  0  0  0  0  0  0  0  0  0
    2.8720   61.1950    8.9000 H   0  0  0  0  0  0  0  0  0  0  0  0
    1.7160   63.0850    7.8320 H   0  0  0  0  0  0  0  0  0  0  0  0
  1  6  1  0
  2  4  1  0
  2 24  1  0
  2 25  1  0
  2 26  1  0
  3  6  2  0
  4  3  1  0
  4  8  2  0
  5 27  1  0
  5 28  1  0
  6  5  1  0
  7 15  2  0
  8  1  1  0
  9 16  1  0
  9 29  1  0
 10  8  1  0
 10 13  2  0
 11 21  1  0
 12 10  1  0
 12 30  1  0
 14  7  1  0
 14 12  2  0
 14 31  1  0
 15  9  1  0
 15 13  1  0
 16 17  2  0
 16 23  1  0
 17 18  1  0
 17 32  1  0
 18 19  2  0
 18 33  1  0
 19 11  1  0
 20 11  1  0
 20 34  1  0
 20 35  1  0
 20 36  1  0
 21 37  1  0
 21 38  1  0
 21 39  1  0
 22 19  1  0
 22 40  1  0
 23 22  2  0
 23 41  1  0
M  END
>  <energy>  (9) 
-6.721 -7.540 0.500 -8.041 0.000 1.571

$$$$
MOL_0_pose_9
     RDKit          3D

 41 43  0  0  0  0  0  0  0  0999 V2000
   -1.7290   64.9900   10.2760 S   0  0  0  0  0  0  0  0  0  0  0  0
    0.1020   62.0800    8.2320 C   0  0  0  0  0  0  0  0  0  0  0  0
   -1.5300   62.5290   10.0420 N   0  0  0  0  0  0  0  0  0  0  0  0
   -0.7020   62.9850    9.1290 C   0  0  0  0  0  0  0  0  0  0  0  0
   -3.0740   63.1090   11.7530 N   0  0  0  0  0  0  0  0  0  0  0  0
   -2.1690   63.4090   10.7530 C   0  0  0  0  0  0  0  0  0  0  0  0
    1.7560   66.5310    6.4440 N   0  0  0  0  0  0  0  0  0  0  0  0
   -0.6350   64.3320    9.0620 C   0  0  0  0  0  0  0  0  0  0  0  0
    3.4640   64.9560    6.7010 N   0  0  0  0  0  0  0  0  0  0  0  0
    0.2020   65.1140    8.1360 C   0  0  0  0  0  0  0  0  0  0  0  0
    5.0700   59.8780    8.3320 N   0  0  0  0  0  0  0  0  0  0  0  0
   -0.2810   66.2990    7.5650 C   0  0  0  0  0  0  0  0  0  0  0  0
    1.4350   64.7060    7.8300 N   0  0  0  0  0  0  0  0  0  0  0  0
    0.5430   66.9960    6.7030 C   0  0  0  0  0  0  0  0  0  0  0  0
    2.1890   65.4080    6.9990 C   0  0  0  0  0  0  0  0  0  0  0  0
    3.8680   63.6780    7.1110 C   0  0  0  0  0  0  0  0  0  0  0  0
    4.6950   62.9170    6.2960 C   0  0  0  0  0  0  0  0  0  0  0  0
    5.0940   61.6580    6.7010 C   0  0  0  0  0  0  0  0  0  0  0  0
    4.6680   61.1540    7.9220 C   0  0  0  0  0  0  0  0  0  0  0  0
    4.0770   58.9160    8.8150 C   0  0  0  0  0  0  0  0  0  0  0  0
    6.4860   59.5050    8.2780 C   0  0  0  0  0  0  0  0  0  0  0  0
    3.8390   61.9160    8.7370 C   0  0  0  0  0  0  0  0  0  0  0  0
    3.4450   63.1760    8.3350 C   0  0  0  0  0  0  0  0  0  0  0  0
   -0.4650   61.8670    7.3270 H   0  0  0  0  0  0  0  0  0  0  0  0
    1.0380   62.5720    7.9670 H   0  0  0  0  0  0  0  0  0  0  0  0
    0.3170   61.1480    8.7550 H   0  0  0  0  0  0  0  0  0  0  0  0
   -3.5120   63.8240   12.2420 H   0  0  0  0  0  0  0  0  0  0  0  0
   -3.2720   62.1850   11.9680 H   0  0  0  0  0  0  0  0  0  0  0  0
    4.0770   65.5230    6.2090 H   0  0  0  0  0  0  0  0  0  0  0  0
   -1.2740   66.6570    7.7910 H   0  0  0  0  0  0  0  0  0  0  0  0
    0.2020   67.9130    6.2460 H   0  0  0  0  0  0  0  0  0  0  0  0
    5.0270   63.3100    5.3470 H   0  0  0  0  0  0  0  0  0  0  0  0
    5.7370   61.0660    6.0670 H   0  0  0  0  0  0  0  0  0  0  0  0
    4.5750   57.9850    9.0870 H   0  0  0  0  0  0  0  0  0  0  0  0
    3.5700   59.3250    9.6880 H   0  0  0  0  0  0  0  0  0  0  0  0
    3.3470   58.7210    8.0290 H   0  0  0  0  0  0  0  0  0  0  0  0
    6.9650   59.7610    9.2230 H   0  0  0  0  0  0  0  0  0  0  0  0
    6.5720   58.4320    8.1060 H   0  0  0  0  0  0  0  0  0  0  0  0
    6.9730   60.0440    7.4660 H   0  0  0  0  0  0  0  0  0  0  0  0
    3.5070   61.5230    9.6870 H   0  0  0  0  0  0  0  0  0  0  0  0
    2.8050   63.7690    8.9700 H   0  0  0  0  0  0  0  0  0  0  0  0
  1  6  1  0
  2  4  1  0
  2 24  1  0
  2 25  1  0
  2 26  1  0
  3  6  2  0
  4  3  1  0
  4  8  2  0
  5 27  1  0
  5 28  1  0
  6  5  1  0
  7 15  2  0
  8  1  1  0
  9 16  1  0
  9 29  1  0
 10  8  1  0
 10 13  2  0
 11 21  1  0
 12 10  1  0
 12 30  1  0
 14  7  1  0
 14 12  2  0
 14 31  1  0
 15  9  1  0
 15 13  1  0
 16 17  2  0
 16 23  1  0
 17 18  1  0
 17 32  1  0
 18 19  2  0
 18 33  1  0
 19 11  1  0
 20 11  1  0
 20 34  1  0
 20 35  1  0
 20 36  1  0
 21 37  1  0
 21 38  1  0
 21 39  1  0
 22 19  1  0
 22 40  1  0
 23 22  2  0
 23 41  1  0
M  END
>  <energy>  (10) 
-6.859 -7.710 0.671 -8.382 0.000 1.604

$$$$
